/*--------------------------------*- C++ -*----------------------------------*\
| =========                 |                                                 |
| \\      /  F ield         | OpenFOAM: The Open Source CFD Toolbox           |
|  \\    /   O peration     | Version:  v2012                                 |
|   \\  /    A nd           | Website:  www.openfoam.com                      |
|    \\/     M anipulation  |                                                 |
\*---------------------------------------------------------------------------*/
FoamFile
{
    version     2.0;
    format      ascii;
    class       dictionary;
    object      controlDict;
}
// * * * * * * * * * * * * * * * * * * * * * * * * * * * * * * * * * * * * * //

libs                (overset fvMotionSolvers);

DebugSwitches
{
    overset                 0;
    dynamicOversetFvMesh    0;
    cellVolumeWeight        0;
}

application         overInterDyMFoam;

startFrom           latestTime;

startTime           0.0;

stopAt              endTime;

endTime             140;

deltaT              1e-3;

writeControl        adjustableRunTime;

writeInterval       0.5;

purgeWrite          0;

writeFormat         ascii;

writePrecision      6;

writeCompression    off;

timeFormat          general;

timePrecision       6;

runTimeModifiable   no;

adjustTimeStep      yes;

maxCo               0.65;

maxAlphaCo          0.65;

maxDeltaT           1;

// ************************************************************************* //
