/*--------------------------------*- C++ -*----------------------------------*\
| =========                 |                                                 |
| \\      /  F ield         | OpenFOAM: The Open Source CFD Toolbox           |
|  \\    /   O peration     | Version:  v2012                                 |
|   \\  /    A nd           | Website:  www.openfoam.com                      |
|    \\/     M anipulation  |                                                 |
\*---------------------------------------------------------------------------*/
FoamFile
{
    version     2.0;
    format      ascii;
    class       dictionary;
    object      topoSetDict;
}
// * * * * * * * * * * * * * * * * * * * * * * * * * * * * * * * * * * * * * //

#include   "geometry"

actions
(
    {
        name    staticCells;
        type    cellSet;
        action  new;
        source  regionsToCell;
        insidePoints (( #calc"$tankRight*0.99" 0.0 #calc"$tankTop*0.99" ));
    }

    {
        name    dynamicCells;
        type    cellSet;
        action  new;
        source  cellToCell;
        set     staticCells;
    }

    {
        name    dynamicCells;
        type    cellSet;
        action  invert;
    }
);

// ************************************************************************* //
