/*--------------------------------*- C++ -*----------------------------------*\
| =========                 |                                                 |
| \\      /  F ield         | OpenFOAM: The Open Source CFD Toolbox           |
|  \\    /   O peration     | Version:  v1812                                 |
|   \\  /    A nd           | Web:      www.OpenFOAM.com                      |
|    \\/     M anipulation  |                                                 |
\*---------------------------------------------------------------------------*/
FoamFile
{
    version     2.0;
    format      ascii;
    class       dictionary;
    object      dynamicMeshDict;
}
// * * * * * * * * * * * * * * * * * * * * * * * * * * * * * * * * * * * * * //

dynamicFvMesh       dynamicOversetFvMesh;

dynamicOversetFvMeshCoeffs
{
    // Control the number of interpolated cells
    // layerRelax 0.3;
}

solver              multiSolidBodyMotionSolver;

multiSolidBodyMotionSolverCoeffs
{
    movingZone1
    {
        solidBodyMotionFunction internalWaveLinearMotion;
        internalWaveLinearMotionCoeffs
        {
            amplitude       (
                            (0.0 0.0 0.1)
                            (0.0 0.0 0.1)
                            );
            omega           (
                            0.889
                            1.778
                            );
            phase           (
                            #calc"-M_PI_2"
                            #calc"-M_PI_2"
                            );
        }
    }
}

// ************************************************************************* //
