/*--------------------------------*- C++ -*----------------------------------*\
| =========                 |                                                 |
| \\      /  F ield         | OpenFOAM: The Open Source CFD Toolbox           |
|  \\    /   O peration     | Version:  v2012                                 |
|   \\  /    A nd           | Website:  www.openfoam.com                      |
|    \\/     M anipulation  |                                                 |
\*---------------------------------------------------------------------------*/
FoamFile
{
    version     2.0;
    format      ascii;
    class       pointVectorField;
    object      pointDisplacement;
}
// * * * * * * * * * * * * * * * * * * * * * * * * * * * * * * * * * * * * * //

dimensions      [0 1 0 0 0 0 0];

internalField   uniform (0 0 0);

boundaryField
{
    oversetBoundary
    {
        patchType       overset;
        type            zeroGradient;
    }

    cylinder
    {
        type            zeroGradient;
    }

    "(walls|top)"
    {
        type            fixedValue;
        value           uniform (0 0 0);
    }

    "(frontAndBack|frontAndBack1)"
    {
        type            empty;
    }
}

// ************************************************************************* //
